<?xml version="1.0" encoding="UTF-8"?>

<!-- generated on 2025-03-03 12:05:01 by Eclipse SUMO netconvert Version 1.22.0
<netconvertConfiguration xmlns:xsi="http://www.w3.org/2001/XMLSchema-instance" xsi:noNamespaceSchemaLocation="http://sumo.dlr.de/xsd/netconvertConfiguration.xsd">

    <input>
        <osm-files value="map.osm"/>
    </input>

    <output>
        <output-file value="network.net.xml"/>
    </output>

    <projection>
        <proj.utm value="true"/>
    </projection>

</netconvertConfiguration>
-->

<net version="1.20" junctionCornerDetail="5" limitTurnSpeed="5.50" xmlns:xsi="http://www.w3.org/2001/XMLSchema-instance" xsi:noNamespaceSchemaLocation="http://sumo.dlr.de/xsd/net_file.xsd">

    <location netOffset="-699174.25,-5710892.90" convBoundary="0.00,0.00,3281.11,2049.96" origBoundary="-0.128411,51.509608,-0.057486,51.531892" projParameter="+proj=utm +zone=30 +ellps=WGS84 +datum=WGS84 +units=m +no_defs"/>

    <type id="highway.cycleway" priority="1" numLanes="1" speed="5.56" allow="bicycle" oneway="0" width="2.00"/>
    <type id="highway.footway" priority="1" numLanes="1" speed="2.78" allow="pedestrian" oneway="1" width="2.00"/>
    <type id="highway.path" priority="1" numLanes="1" speed="5.56" allow="pedestrian bicycle" oneway="0" width="2.00"/>
    <type id="highway.pedestrian" priority="1" numLanes="1" speed="2.78" allow="pedestrian" oneway="1" width="2.00"/>
    <type id="highway.primary" priority="12" numLanes="2" speed="27.78" disallow="tram rail_urban rail rail_electric rail_fast ship container cable_car subway aircraft wheelchair scooter drone" oneway="0"/>
    <type id="highway.residential" priority="3" numLanes="1" speed="13.89" disallow="tram rail_urban rail rail_electric rail_fast ship container cable_car subway aircraft wheelchair scooter drone" oneway="0"/>
    <type id="highway.service" priority="1" numLanes="1" speed="5.56" allow="pedestrian delivery bicycle" oneway="0"/>
    <type id="highway.steps" priority="1" numLanes="1" speed="1.39" allow="pedestrian" oneway="1" width="2.00"/>
    <type id="highway.tertiary" priority="10" numLanes="1" speed="22.22" disallow="tram rail_urban rail rail_electric rail_fast ship container cable_car subway aircraft wheelchair scooter drone" oneway="0"/>
    <type id="highway.track" priority="1" numLanes="1" speed="5.56" allow="pedestrian motorcycle moped bicycle" oneway="0"/>
    <type id="highway.unclassified" priority="4" numLanes="1" speed="13.89" disallow="tram rail_urban rail rail_electric rail_fast ship container cable_car subway aircraft wheelchair scooter drone" oneway="0"/>
    <type id="railway.light_rail" priority="19" numLanes="1" speed="27.78" allow="rail_urban" oneway="1"/>
    <type id="railway.rail" priority="20" numLanes="1" speed="44.44" allow="rail" oneway="1"/>
    <type id="railway.subway" priority="18" numLanes="1" speed="27.78" allow="subway" oneway="1"/>

    <edge id=":10004388708_0" function="internal">
        <lane id=":10004388708_0_0" index="0" allow="pedestrian delivery bicycle" speed="3.65" length="4.67" shape="2260.31,413.70 2261.38,414.68 2261.65,415.53 2261.13,416.26 2259.82,416.87"/>
    </edge>
    <edge id=":10004388709_0" function="internal">
        <lane id=":10004388709_0_0" index="0" disallow="tram rail_urban rail rail_electric rail_fast ship container cable_car subway aircraft wheelchair scooter drone" speed="8.94" length="0.46" shape="2245.18,419.09 2245.21,419.58"/>
        <lane id=":10004388709_0_1" index="1" disallow="tram rail_urban rail rail_electric rail_fast ship container cable_car subway aircraft wheelchair scooter drone" speed="8.94" length="0.46" shape="2248.38,419.01 2248.40,419.43"/>
    </edge>
    <edge id=":10004388710_0" function="internal">
        <lane id=":10004388710_0_0" index="0" allow="pedestrian delivery bicycle" speed="3.65" length="4.67" shape="2252.60,409.36 2253.87,410.06 2254.33,410.82 2253.99,411.65 2252.86,412.55"/>
    </edge>
    <edge id=":10004388711_0" function="internal">
        <lane id=":10004388711_0_0" index="0" disallow="tram rail_urban rail rail_electric rail_fast ship container cable_car subway aircraft wheelchair scooter drone" speed="8.94" length="2.85" shape="2244.85,411.93 2245.04,414.84"/>
        <lane id=":10004388711_0_1" index="1" disallow="tram rail_urban rail rail_electric rail_fast ship container cable_car subway aircraft wheelchair scooter drone" speed="8.94" length="2.85" shape="2248.05,411.79 2248.23,414.57"/>
    </edge>
    <edge id=":10004388712_0" function="internal">
        <lane id=":10004388712_0_0" index="0" allow="pedestrian delivery bicycle" speed="5.56" length="0.28" shape="2256.93,416.41 2256.64,416.37"/>
    </edge>
    <edge id=":10004388712_1" function="internal">
        <lane id=":10004388712_1_0" index="0" allow="pedestrian delivery bicycle" speed="5.56" length="0.31" shape="2257.12,413.20 2257.42,413.25"/>
    </edge>
    <edge id=":10263444809_0" function="internal">
        <lane id=":10263444809_0_0" index="0" disallow="tram rail_urban rail rail_electric rail_fast ship container cable_car subway aircraft wheelchair scooter drone" speed="8.94" length="5.67" shape="2250.24,163.58 2246.29,167.65"/>
    </edge>
    <edge id=":10285308929_0" function="internal">
        <lane id=":10285308929_0_0" index="0" disallow="tram rail_urban rail rail_electric rail_fast ship container cable_car subway aircraft wheelchair scooter drone" speed="8.94" length="0.30" shape="2247.40,440.23 2247.39,439.93"/>
    </edge>
    <edge id=":10285308932_0" function="internal">
        <lane id=":10285308932_0_0" index="0" disallow="tram rail_urban rail rail_electric rail_fast ship container cable_car subway aircraft wheelchair scooter drone" speed="8.94" length="0.30" shape="2247.62,450.27 2247.61,449.97"/>
    </edge>
    <edge id=":104320_0" function="internal">
        <lane id=":104320_0_0" index="0" disallow="tram rail_urban rail rail_electric rail_fast ship container cable_car subway aircraft wheelchair scooter drone" speed="8.94" length="5.40" shape="2253.74,171.71 2254.53,170.32 2255.01,169.33 2255.38,168.29 2255.84,166.76"/>
    </edge>
    <edge id=":104321_0" function="internal">
        <lane id=":104321_0_0" index="0" disallow="tram rail_urban rail rail_electric rail_fast ship container cable_car subway aircraft wheelchair scooter drone" speed="3.65" length="4.67" shape="2403.99,119.76 2404.53,118.43 2405.23,117.87 2406.10,118.11 2407.12,119.12"/>
    </edge>
    <edge id=":10577984008_0" function="internal">
        <lane id=":10577984008_0_0" index="0" allow="bicycle" speed="5.56" length="1.40" width="2.00" shape="2754.67,496.43 2755.30,497.67"/>
    </edge>
    <edge id=":10577984008_1" function="internal">
        <lane id=":10577984008_1_0" index="0" allow="bicycle" speed="5.56" length="1.65" width="2.00" shape="2757.17,496.95 2756.43,495.48"/>
    </edge>
    <edge id=":10577984009_0" function="internal">
        <lane id=":10577984009_0_0" index="0" allow="bicycle" speed="5.56" length="0.91" width="2.00" shape="2752.09,486.88 2752.27,487.77"/>
    </edge>
    <edge id=":10577984009_1" function="internal">
        <lane id=":10577984009_1_0" index="0" allow="bicycle" speed="5.56" length="0.99" width="2.00" shape="2754.24,487.44 2754.05,486.47"/>
    </edge>
    <edge id=":10577984012_0" function="internal">
        <lane id=":10577984012_0_0" index="0" allow="bicycle" speed="5.56" length="4.73" width="2.00" shape="2752.23,487.58 2751.42,482.92"/>
    </edge>
    <edge id=":10577984012_1" function="internal">
        <lane id=":10577984012_1_0" index="0" allow="bicycle" speed="2.89" length="1.26" width="2.00" shape="2752.23,487.58 2752.60,486.75 2752.89,486.54"/>
    </edge>
    <edge id=":10577984012_4" function="internal">
        <lane id=":10577984012_4_0" index="0" allow="bicycle" speed="2.89" length="1.66" width="2.00" shape="2752.89,486.54 2753.05,486.42 2753.59,486.59 2754.20,487.24"/>
    </edge>
    <edge id=":10577984012_2" function="internal">
        <lane id=":10577984012_2_0" index="0" allow="bicycle" speed="5.56" length="4.75" width="2.00" shape="2753.39,482.57 2754.20,487.24"/>
    </edge>
    <edge id=":10577984012_3" function="internal">
        <lane id=":10577984012_3_0" index="0" allow="pedestrian bicycle" speed="2.89" length="2.40" width="2.00" shape="2753.39,482.57 2753.03,483.39 2752.58,483.73 2752.04,483.57 2751.78,483.30"/>
    </edge>
    <edge id=":10577984012_5" function="internal">
        <lane id=":10577984012_5_0" index="0" allow="pedestrian bicycle" speed="2.89" length="0.52" width="2.00" shape="2751.78,483.30 2751.42,482.92"/>
    </edge>
    <edge id=":10578014043_0" function="internal">
        <lane id=":10578014043_0_0" index="0" disallow="tram rail_urban rail rail_electric rail_fast ship container cable_car subway aircraft wheelchair scooter drone" speed="8.94" length="0.95" shape="2755.24,489.00 2756.18,488.83"/>
    </edge>
    <edge id=":10607127_0" function="internal">
        <lane id=":10607127_0_0" index="0" disallow="tram rail_urban rail rail_electric rail_fast ship container cable_car subway aircraft wheelchair scooter drone" speed="6.24" length="8.56" shape="2247.34,438.37 2246.95,435.91 2245.95,434.21 2244.33,433.28 2242.11,433.12"/>
    </edge>
    <edge id=":10607127_1" function="internal">
        <lane id=":10607127_1_0" index="0" disallow="tram rail_urban rail rail_electric rail_fast ship container cable_car subway aircraft wheelchair scooter drone" speed="8.94" length="10.92" shape="2247.34,438.37 2247.00,435.35 2246.38,433.18 2245.76,430.93 2245.41,427.66"/>
        <lane id=":10607127_1_1" index="1" disallow="tram rail_urban rail rail_electric rail_fast ship container cable_car subway aircraft wheelchair scooter drone" speed="8.94" length="10.92" shape="2247.34,438.37 2247.50,435.34 2247.98,433.13 2248.46,430.84 2248.60,427.56"/>
    </edge>
    <edge id=":10607128_0" function="internal">
        <lane id=":10607128_0_0" index="0" disallow="tram rail_urban rail rail_electric rail_fast ship container cable_car subway aircraft wheelchair scooter drone" speed="8.94" length="10.12" shape="2251.16,462.21 2248.40,461.05 2246.44,460.43 2244.41,460.06 2241.43,459.63"/>
        <lane id=":10607128_0_1" index="1" disallow="tram rail_urban rail rail_electric rail_fast ship container cable_car subway aircraft wheelchair scooter drone" speed="8.94" length="10.98" shape="2252.45,459.29 2249.46,458.02 2247.33,457.34 2245.13,456.93 2241.91,456.46"/>
    </edge>
    <edge id=":10607128_2" function="internal">
        <lane id=":10607128_2_0" index="0" disallow="tram rail_urban rail rail_electric rail_fast ship container cable_car subway aircraft wheelchair scooter drone" speed="8.11" length="9.76" shape="2252.45,459.29 2250.38,458.01 2248.88,456.28 2247.97,454.09 2247.64,451.44"/>
    </edge>
    <edge id=":10677374_0" function="internal">
        <lane id=":10677374_0_0" index="0" allow="bus bicycle" speed="7.11" length="10.30" shape="2753.88,203.38 2752.64,200.83 2750.90,199.21 2748.66,198.53 2745.92,198.78"/>
    </edge>
    <edge id=":10677374_1" function="internal">
        <lane id=":10677374_1_0" index="0" disallow="tram rail_urban rail rail_electric rail_fast ship container cable_car subway aircraft wheelchair scooter drone" speed="8.94" length="14.47" shape="2753.88,203.38 2749.11,189.72"/>
    </edge>
    <edge id=":10677374_2" function="internal">
        <lane id=":10677374_2_0" index="0" disallow="tram rail_urban rail rail_electric rail_fast ship container cable_car subway aircraft wheelchair scooter drone" speed="6.62" length="1.78" shape="2753.88,203.38 2753.88,201.60"/>
    </edge>
    <edge id=":10677374_3" function="internal">
        <lane id=":10677374_3_0" index="0" disallow="tram rail_urban rail rail_electric rail_fast ship container cable_car subway aircraft wheelchair scooter drone" speed="3.65" length="1.44" shape="2753.88,203.38 2754.26,201.99"/>
    </edge>
    <edge id=":10677374_15" function="internal">
        <lane id=":10677374_15_0" index="0" disallow="tram rail_urban rail rail_electric rail_fast ship container cable_car subway aircraft wheelchair scooter drone" speed="6.62" length="8.73" shape="2753.88,201.60 2755.17,200.12 2757.74,198.94 2761.58,198.07"/>
    </edge>
    <edge id=":10677374_16" function="internal">
        <lane id=":10677374_16_0" index="0" disallow="tram rail_urban rail rail_electric rail_fast ship container cable_car subway aircraft wheelchair scooter drone" speed="3.65" length="3.23" shape="2754.26,201.99 2754.90,201.36 2755.78,201.49 2756.92,202.38"/>
    </edge>
    <edge id=":10677374_4" function="internal">
        <lane id=":10677374_4_0" index="0" disallow="tram rail_urban rail rail_electric rail_fast ship container cable_car subway aircraft wheelchair scooter drone" speed="8.79" length="12.79" shape="2759.16,190.64 2757.19,192.78 2756.17,195.46 2756.07,198.66 2756.92,202.38"/>
    </edge>
    <edge id=":10677374_5" function="internal">
        <lane id=":10677374_5_0" index="0" allow="bus bicycle" speed="8.94" length="15.65" shape="2759.16,190.64 2756.11,193.04 2752.88,195.42 2749.48,197.45 2745.92,198.78"/>
    </edge>
    <edge id=":10677374_6" function="internal">
        <lane id=":10677374_6_0" index="0" disallow="tram rail_urban rail rail_electric rail_fast ship container cable_car subway aircraft wheelchair scooter drone" speed="6.83" length="12.39" shape="2759.16,190.64 2755.71,192.77 2752.88,193.33 2750.68,192.31 2749.11,189.72"/>
    </edge>
    <edge id=":10677374_7" function="internal">
        <lane id=":10677374_7_0" index="0" disallow="tram rail_urban rail rail_electric rail_fast ship container cable_car subway aircraft wheelchair scooter drone" speed="8.71" length="14.43" shape="2752.10,188.60 2754.15,193.08 2756.41,196.15 2758.89,197.82 2761.58,198.07"/>
    </edge>
    <edge id=":10677374_8" function="internal">
        <lane id=":10677374_8_0" index="0" disallow="tram rail_urban rail rail_electric rail_fast ship container cable_car subway aircraft wheelchair scooter drone" speed="8.94" length="14.60" shape="2752.10,188.60 2756.92,202.38"/>
    </edge>
    <edge id=":10677374_9" function="internal">
        <lane id=":10677374_9_0" index="0" allow="bus bicycle" speed="7.62" length="3.90" shape="2752.10,188.60 2752.84,192.23 2752.78,192.42"/>
    </edge>
    <edge id=":10677374_10" function="internal">
        <lane id=":10677374_10_0" index="0" disallow="tram rail_urban rail rail_electric rail_fast ship container cable_car subway aircraft wheelchair scooter drone" speed="3.65" length="1.44" shape="2752.10,188.60 2751.77,190.01"/>
    </edge>
    <edge id=":10677374_17" function="internal">
        <lane id=":10677374_17_0" index="0" allow="bus bicycle" speed="7.62" length="10.08" shape="2752.78,192.42 2752.05,195.14 2749.74,197.32 2745.92,198.78"/>
    </edge>
    <edge id=":10677374_18" function="internal">
        <lane id=":10677374_18_0" index="0" disallow="tram rail_urban rail rail_electric rail_fast ship container cable_car subway aircraft wheelchair scooter drone" speed="3.65" length="3.23" shape="2751.77,190.01 2751.16,190.66 2750.28,190.57 2749.11,189.72"/>
    </edge>
    <edge id=":10677374_11" function="internal">
        <lane id=":10677374_11_0" index="0" disallow="tram rail_urban rail rail_electric rail_fast ship container cable_car subway aircraft wheelchair scooter drone" speed="6.04" length="8.35" shape="2745.17,195.67 2747.54,194.79 2748.98,193.50 2749.50,191.82 2749.11,189.72"/>
    </edge>
    <edge id=":10677374_12" function="internal">
        <lane id=":10677374_12_0" index="0" disallow="tram rail_urban rail rail_electric rail_fast ship container cable_car subway aircraft wheelchair scooter drone" speed="8.94" length="16.70" shape="2745.17,195.67 2749.09,195.66 2753.35,196.73 2757.62,197.87 2761.58,198.07"/>
    </edge>
    <edge id=":10677374_13" function="internal">
        <lane id=":10677374_13_0" index="0" disallow="tram rail_urban rail rail_electric rail_fast ship container cable_car subway aircraft wheelchair scooter drone" speed="8.51" length="15.16" shape="2745.17,195.67 2749.22,195.29 2752.53,196.29 2755.09,198.65 2756.92,202.38"/>
    </edge>
    <edge id=":10677374_14" function="internal">
        <lane id=":10677374_14_0" index="0" allow="bus bicycle" speed="3.65" length="4.67" shape="2745.17,195.67 2746.53,196.17 2747.10,196.85 2746.90,197.72 2745.92,198.78"/>
    </edge>
    <edge id=":10677375_0" function="internal">
        <lane id=":10677375_0_0" index="0" disallow="tram rail_urban rail rail_electric rail_fast ship container cable_car subway aircraft wheelchair scooter drone" speed="8.94" length="10.69" shape="2589.63,224.98 2586.56,225.26 2584.31,225.52 2582.07,225.88 2579.05,226.45"/>
    </edge>
    <edge id=":10677375_1" function="internal">
        <lane id=":10677375_1_0" index="0" disallow="tram rail_urban rail rail_electric rail_fast ship container cable_car subway aircraft wheelchair scooter drone" speed="3.65" length="1.44" shape="2589.63,224.98 2588.36,224.29"/>
    </edge>
    <edge id=":10677375_6" function="internal">
        <lane id=":10677375_6_0" index="0" disallow="tram rail_urban rail rail_electric rail_fast ship container cable_car subway aircraft wheelchair scooter drone" speed="3.65" length="3.23" shape="2588.36,224.29 2587.90,223.52 2588.23,222.69 2589.35,221.79"/>
    </edge>
    <edge id=":10677375_2" function="internal">
        <lane id=":10677375_2_0" index="0" disallow="tram rail_urban rail rail_electric rail_fast ship container cable_car subway aircraft wheelchair scooter drone" speed="6.48" length="9.03" shape="2583.33,216.68 2583.87,219.10 2585.05,220.76 2586.87,221.66 2589.35,221.79"/>
    </edge>
    <edge id=":10677375_3" function="internal">
        <lane id=":10677375_3_0" index="0" disallow="tram rail_urban rail rail_electric rail_fast ship container cable_car subway aircraft wheelchair scooter drone" speed="7.64" length="11.69" shape="2583.33,216.68 2583.31,220.59 2582.59,223.52 2581.17,225.48 2579.05,226.45"/>
    </edge>
    <edge id=":10677375_4" function="internal">
        <lane id=":10677375_4_0" index="0" disallow="tram rail_urban rail rail_electric rail_fast ship container cable_car subway aircraft wheelchair scooter drone" speed="8.94" length="11.03" shape="2578.43,223.31 2581.51,222.73 2583.86,222.35 2586.23,222.08 2589.35,221.79"/>
    </edge>
    <edge id=":10677375_5" function="internal">
        <lane id=":10677375_5_0" index="0" disallow="tram rail_urban rail rail_electric rail_fast ship container cable_car subway aircraft wheelchair scooter drone" speed="3.65" length="1.44" shape="2578.43,223.31 2579.76,223.87"/>
    </edge>
    <edge id=":10677375_7" function="internal">
        <lane id=":10677375_7_0" index="0" disallow="tram rail_urban rail rail_electric rail_fast ship container cable_car subway aircraft wheelchair scooter drone" speed="3.65" length="3.23" shape="2579.76,223.87 2580.31,224.57 2580.07,225.44 2579.05,226.45"/>
    </edge>
    <edge id=":10687306562_0" function="internal">
        <lane id=":10687306562_0_0" index="0" allow="pedestrian bicycle" speed="5.56" length="1.90" width="2.00" shape="2640.60,578.09 2641.54,576.44"/>
    </edge>
    <edge id=":10687306563_0" function="internal">
        <lane id=":10687306563_0_0" index="0" allow="pedestrian bicycle" speed="5.56" length="1.47" width="2.00" shape="2646.09,575.58 2647.53,575.86"/>
    </edge>
    <edge id=":10687306564_0" function="internal">
        <lane id=":10687306564_0_0" index="0" allow="pedestrian bicycle" speed="5.56" length="2.58" width="2.00" shape="2651.16,582.94 2650.72,585.48"/>
    </edge>
    <edge id=":10687306565_0" function="internal">
        <lane id=":10687306565_0_0" index="0" allow="pedestrian bicycle" speed="5.56" length="2.29" width="2.00" shape="2648.44,588.03 2646.18,587.63"/>
    </edge>
    <edge id=":108420_0" function="internal">
        <lane id=":108420_0_0" index="0" disallow="tram rail_urban rail rail_electric rail_fast ship container cable_car subway aircraft wheelchair scooter drone" speed="8.94" length="5.23" shape="3112.21,554.65 3109.15,550.41"/>
    </edge>
    <edge id=":10859523354_0" function="internal">
        <lane id=":10859523354_0_0" index="0" disallow="tram rail_urban rail rail_electric rail_fast ship container cable_car subway aircraft wheelchair scooter drone" speed="8.94" length="0.30" shape="2500.35,491.63 2500.65,491.65"/>
        <lane id=":10859523354_0_1" index="1" disallow="tram rail_urban rail rail_electric rail_fast ship container cable_car subway aircraft wheelchair scooter drone" speed="8.94" length="0.30" shape="2500.15,494.83 2500.44,494.85"/>
    </edge>
    <edge id=":10859523355_0" function="internal">
        <lane id=":10859523355_0_0" index="0" disallow="tram rail_urban rail rail_electric rail_fast ship container cable_car subway aircraft wheelchair scooter drone" speed="8.94" length="0.30" shape="2567.79,489.83 2567.49,489.81"/>
        <lane id=":10859523355_0_1" index="1" disallow="tram rail_urban rail rail_electric rail_fast ship container cable_car subway aircraft wheelchair scooter drone" speed="8.94" length="0.30" shape="2567.96,486.63 2567.66,486.61"/>
    </edge>
    <edge id=":10859523356_0" function="internal">
        <lane id=":10859523356_0_0" index="0" disallow="tram rail_urban rail rail_electric rail_fast ship container cable_car subway aircraft wheelchair scooter drone" speed="8.94" length="0.47" shape="2668.03,495.88 2668.50,495.92"/>
        <lane id=":10859523356_0_1" index="1" disallow="tram rail_urban rail rail_electric rail_fast ship container cable_car subway aircraft wheelchair scooter drone" speed="8.94" length="0.47" shape="2668.26,492.69 2668.73,492.73"/>
    </edge>
    <edge id=":10863737759_0" function="internal">
        <lane id=":10863737759_0_0" index="0" disallow="tram rail_urban rail rail_electric rail_fast ship container cable_car subway aircraft wheelchair scooter drone" speed="8.94" length="0.10" shape="2581.04,185.42 2581.04,185.42"/>
    </edge>
    <edge id=":10971309790_0" function="internal">
        <lane id=":10971309790_0_0" index="0" disallow="tram rail_urban rail rail_electric rail_fast ship container cable_car subway aircraft wheelchair scooter drone" speed="8.94" length="4.67" shape="2308.14,326.67 2309.68,331.07"/>
    </edge>
    <edge id=":10971309795_0" function="internal">
        <lane id=":10971309795_0_0" index="0" disallow="tram rail_urban rail rail_electric rail_fast ship container cable_car subway aircraft wheelchair scooter drone" speed="8.94" length="5.03" shape="2356.99,319.51 2355.93,314.60"/>
    </edge>
    <edge id=":10972127298_0" function="internal">
        <lane id=":10972127298_0_0" index="0" allow="pedestrian delivery bicycle" speed="2.24" length="0.26" shape="2352.30,499.84 2352.35,500.09"/>
    </edge>
    <edge id=":10972127302_0" function="internal">
        <lane id=":10972127302_0_0" index="0" allow="pedestrian delivery bicycle" speed="5.56" length="0.29" shape="2267.19,591.70 2266.91,591.79"/>
    </edge>
    <edge id=":10972127302_1" function="internal">
        <lane id=":10972127302_1_0" index="0" allow="pedestrian delivery bicycle" speed="5.56" length="0.18" shape="2265.99,588.73 2266.16,588.68"/>
    </edge>
    <edge id=":10972141958_0" function="internal">
        <lane id=":10972141958_0_0" index="0" allow="pedestrian delivery bicycle" speed="3.65" length="4.67" shape="2328.53,577.79 2329.91,578.19 2330.54,578.83 2330.40,579.71 2329.49,580.84"/>
    </edge>
    <edge id=":10972189970_0" function="internal">
        <lane id=":10972189970_0_0" index="0" allow="pedestrian delivery bicycle" speed="2.24" length="2.59" shape="2379.26,492.07 2379.79,494.60"/>
    </edge>
    <edge id=":10972189988_0" function="internal">
        <lane id=":10972189988_0_0" index="0" allow="pedestrian delivery bicycle" speed="5.56" length="0.10" shape="2289.77,588.96 2289.85,588.97"/>
    </edge>
    <edge id=":10972189988_1" function="internal">
        <lane id=":10972189988_1_0" index="0" allow="pedestrian delivery bicycle" speed="5.56" length="0.10" shape="2289.98,585.77 2290.06,585.78"/>
    </edge>
    <edge id=":10972190004_0" function="internal">
        <lane id=":10972190004_0_0" index="0" disallow="tram rail_urban rail rail_electric rail_fast ship container cable_car subway aircraft wheelchair scooter drone" speed="13.89" length="4.96" shape="2425.28,526.25 2420.56,527.77"/>
    </edge>
    <edge id=":10972190004_1" function="internal">
        <lane id=":10972190004_1_0" index="0" disallow="tram rail_urban rail rail_electric rail_fast ship container cable_car subway aircraft wheelchair scooter drone" speed="13.89" length="4.88" shape="2419.62,524.71 2424.26,523.21"/>
    </edge>
    <edge id=":10972209609_0" function="internal">
        <lane id=":10972209609_0_0" index="0" disallow="tram rail_urban rail rail_electric rail_fast ship container cable_car subway aircraft wheelchair scooter drone" speed="2.24" length="4.98" shape="2435.99,567.74 2431.25,569.29"/>
    </edge>
    <edge id=":10972209609_1" function="internal">
        <lane id=":10972209609_1_0" index="0" disallow="tram rail_urban rail rail_electric rail_fast ship container cable_car subway aircraft wheelchair scooter drone" speed="2.24" length="4.99" shape="2430.25,566.25 2435.00,564.70"/>
    </edge>
    <edge id=":10972209614_0" function="internal">
        <lane id=":10972209614_0_0" index="0" allow="pedestrian delivery bicycle" speed="5.56" length="7.44" shape="2291.50,497.81 2286.45,492.36"/>
    </edge>
    <edge id=":10972209614_1" function="internal">
        <lane id=":10972209614_1_0" index="0" allow="pedestrian delivery bicycle" speed="3.65" length="1.44" shape="2291.50,497.81 2291.26,496.39"/>
    </edge>
    <edge id=":10972209614_4" function="internal">
        <lane id=":10972209614_4_0" index="0" allow="pedestrian delivery bicycle" speed="3.65" length="3.23" shape="2291.26,496.39 2291.57,495.55 2292.42,495.29 2293.83,495.61"/>
    </edge>
    <edge id=":10972209614_2" function="internal">
        <lane id=":10972209614_2_0" index="0" allow="pedestrian delivery bicycle" speed="5.56" length="7.48" shape="2288.74,490.12 2293.83,495.61"/>
    </edge>
    <edge id=":10972209614_3" function="internal">
        <lane id=":10972209614_3_0" index="0" allow="pedestrian delivery bicycle" speed="3.65" length="1.44" shape="2288.74,490.12 2289.01,491.54"/>
    </edge>
    <edge id=":10972209614_5" function="internal">
        <lane id=":10972209614_5_0" index="0" allow="pedestrian delivery bicycle" speed="3.65" length="3.23" shape="2289.01,491.54 2288.72,492.39 2287.86,492.66 2286.45,492.36"/>
    </edge>
    <edge id=":10972211620_0" function="internal">
        <lane id=":10972211620_0_0" index="0" allow="pedestrian delivery bicycle" speed="5.56" length="6.54" shape="2492.45,629.69 2490.64,630.16 2488.99,630.24 2487.51,629.94 2486.18,629.24"/>
    </edge>
    <edge id=":10972211620_1" function="internal">
        <lane id=":10972211620_1_0" index="0" allow="pedestrian delivery bicycle" speed="3.65" length="1.44" shape="2492.45,629.69 2491.05,629.33"/>
    </edge>
    <edge id=":10972211620_4" function="internal">
        <lane id=":10972211620_4_0" index="0" allow="pedestrian delivery bicycle" speed="3.65" length="3.23" shape="2491.05,629.33 2490.41,628.71 2490.52,627.83 2491.38,626.67"/>
    </edge>
    <edge id=":10972211620_2" function="internal">
        <lane id=":10972211620_2_0" index="0" allow="pedestrian delivery bicycle" speed="5.56" length="3.46" shape="2488.04,626.64 2488.68,626.94 2489.45,627.05 2490.35,626.96 2491.38,626.67"/>
    </edge>
    <edge id=":10972211620_3" function="internal">
        <lane id=":10972211620_3_0" index="0" allow="pedestrian delivery bicycle" speed="3.65" length="1.31" shape="2488.04,626.64 2488.50,627.86"/>
    </edge>
    <edge id=":10972211620_5" function="internal">
        <lane id=":10972211620_5_0" index="0" allow="pedestrian delivery bicycle" speed="3.65" length="3.37" shape="2488.50,627.86 2488.55,627.99 2488.41,628.87 2487.62,629.29 2486.18,629.24"/>
    </edge>
    <edge id=":10972211621_0" function="internal">
        <lane id=":10972211621_0_0" index="0" allow="pedestrian delivery bicycle" speed="5.56" length="3.14" shape="2505.57,622.55 2505.18,623.39 2504.82,623.93 2504.32,624.34 2503.53,624.82"/>
    </edge>
    <edge id=":10972211621_1" function="internal">
        <lane id=":10972211621_1_0" index="0" allow="pedestrian delivery bicycle" speed="4.40" length="1.05" shape="2501.95,622.04 2502.21,621.88 2502.38,621.74 2502.50,621.56 2502.63,621.28"/>
    </edge>
    <edge id=":10975244164_0" function="internal">
        <lane id=":10975244164_0_0" index="0" allow="pedestrian delivery bicycle" speed="5.56" length="3.23" shape="2486.01,629.12 2485.22,628.63 2484.60,628.43 2483.92,628.36 2482.96,628.28"/>
    </edge>
    <edge id=":10975244164_1" function="internal">
        <lane id=":10975244164_1_0" index="0" allow="pedestrian delivery bicycle" speed="3.65" length="1.44" shape="2486.01,629.12 2485.51,627.77"/>
    </edge>
    <edge id=":10975244164_4" function="internal">
        <lane id=":10975244164_4_0" index="0" allow="pedestrian delivery bicycle" speed="3.65" length="3.23" shape="2485.51,627.77 2485.65,626.89 2486.44,626.47 2487.88,626.52"/>
    </edge>
    <edge id=":10975244164_2" function="internal">
        <lane id=":10975244164_2_0" index="0" allow="pedestrian delivery bicycle" speed="5.56" length="4.84" shape="2483.35,625.10 2484.78,625.25 2485.77,625.40 2486.69,625.75 2487.88,626.52"/>
    </edge>