<?xml version='1.0' encoding='UTF-8'?>
<additional><tlLogic id="107770" type="static" programID="0" offset="0"><phase duration="31" state="GGGgrr" /><phase duration="5" state="yyygrr" /><phase duration="31" state="rrrGGG" /><phase duration="5" state="rrryyy" /></tlLogic><tlLogic id="107773" type="static" programID="0" offset="0"><phase duration="31" state="GGGgrr" /><phase duration="5" state="yyygrr" /><phase duration="31" state="rrrGGG" /><phase duration="5" state="rrryyy" /></tlLogic><tlLogic id="1139318698" type="static" programID="0" offset="0"><phase duration="31" state="GGGgrr" /><phase duration="5" state="yyygrr" /><phase duration="31" state="rrrGGG" /><phase duration="5" state="rrryyy" /></tlLogic><tlLogic id="1239525734" type="static" programID="0" offset="0"><phase duration="31" state="GGGgrr" /><phase duration="5" state="yyygrr" /><phase duration="31" state="rrrGGG" /><phase duration="5" state="rrryyy" /></tlLogic><tlLogic id="1239525762" type="static" programID="0" offset="0"><phase duration="31" state="GGGgrr" /><phase duration="5" state="yyygrr" /><phase duration="31" state="rrrGGG" /><phase duration="5" state="rrryyy" /></tlLogic><tlLogic id="1239525771" type="static" programID="0" offset="0"><phase duration="31" state="GGGgrr" /><phase duration="5" state="yyygrr" /><phase duration="31" state="rrrGGG" /><phase duration="5" state="rrryyy" /></tlLogic><tlLogic id="1660481244" type="static" programID="0" offset="0"><phase duration="31" state="GGGgrr" /><phase duration="5" state="yyygrr" /><phase duration="31" state="rrrGGG" /><phase duration="5" state="rrryyy" /></tlLogic><tlLogic id="2390005217" type="static" programID="0" offset="0"><phase duration="31" state="GGGgrr" /><phase duration="5" state="yyygrr" /><phase duration="31" state="rrrGGG" /><phase duration="5" state="rrryyy" /></tlLogic><tlLogic id="2390005221" type="static" programID="0" offset="0"><phase duration="31" state="GGGgrr" /><phase duration="5" state="yyygrr" /><phase duration="31" state="rrrGGG" /><phase duration="5" state="rrryyy" /></tlLogic><tlLogic id="2390005222" type="static" programID="0" offset="0"><phase duration="31" state="GGGgrr" /><phase duration="5" state="yyygrr" /><phase duration="31" state="rrrGGG" /><phase duration="5" state="rrryyy" /></tlLogic><tlLogic id="2390008564" type="static" programID="0" offset="0"><phase duration="31" state="GGGgrr" /><phase duration="5" state="yyygrr" /><phase duration="31" state="rrrGGG" /><phase duration="5" state="rrryyy" /></tlLogic><tlLogic id="2390008566" type="static" programID="0" offset="0"><phase duration="31" state="GGGgrr" /><phase duration="5" state="yyygrr" /><phase duration="31" state="rrrGGG" /><phase duration="5" state="rrryyy" /></tlLogic><tlLogic id="2390036490" type="static" programID="0" offset="0"><phase duration="31" state="GGGgrr" /><phase duration="5" state="yyygrr" /><phase duration="31" state="rrrGGG" /><phase duration="5" state="rrryyy" /></tlLogic><tlLogic id="2390036497" type="static" programID="0" offset="0"><phase duration="31" state="GGGgrr" /><phase duration="5" state="yyygrr" /><phase duration="31" state="rrrGGG" /><phase duration="5" state="rrryyy" /></tlLogic><tlLogic id="2390036502" type="static" programID="0" offset="0"><phase duration="31" state="GGGgrr" /><phase duration="5" state="yyygrr" /><phase duration="31" state="rrrGGG" /><phase duration="5" state="rrryyy" /></tlLogic><tlLogic id="2390036511" type="static" programID="0" offset="0"><phase duration="31" state="GGGgrr" /><phase duration="5" state="yyygrr" /><phase duration="31" state="rrrGGG" /><phase duration="5" state="rrryyy" /></tlLogic><tlLogic id="2390039152" type="static" programID="0" offset="0"><phase duration="31" state="GGGgrr" /><phase duration="5" state="yyygrr" /><phase duration="31" state="rrrGGG" /><phase duration="5" state="rrryyy" /></tlLogic><tlLogic id="2538676640" type="static" programID="0" offset="0"><phase duration="31" state="GGGgrr" /><phase duration="5" state="yyygrr" /><phase duration="31" state="rrrGGG" /><phase duration="5" state="rrryyy" /></tlLogic><tlLogic id="256794574" type="static" programID="0" offset="0"><phase duration="31" state="GGGgrr" /><phase duration="5" state="yyygrr" /><phase duration="31" state="rrrGGG" /><phase duration="5" state="rrryyy" /></tlLogic><tlLogic id="256794580" type="static" programID="0" offset="0"><phase duration="31" state="GGGgrr" /><phase duration="5" state="yyygrr" /><phase duration="31" state="rrrGGG" /><phase duration="5" state="rrryyy" /></tlLogic><tlLogic id="256794581" type="static" programID="0" offset="0"><phase duration="31" state="GGGgrr" /><phase duration="5" state="yyygrr" /><phase duration="31" state="rrrGGG" /><phase duration="5" state="rrryyy" /></tlLogic><tlLogic id="256794582" type="static" programID="0" offset="0"><phase duration="31" state="GGGgrr" /><phase duration="5" state="yyygrr" /><phase duration="31" state="rrrGGG" /><phase duration="5" state="rrryyy" /></tlLogic><tlLogic id="256794584" type="static" programID="0" offset="0"><phase duration="31" state="GGGgrr" /><phase duration="5" state="yyygrr" /><phase duration="31" state="rrrGGG" /><phase duration="5" state="rrryyy" /></tlLogic><tlLogic id="256794588" type="static" programID="0" offset="0"><phase duration="31" state="GGGgrr" /><phase duration="5" state="yyygrr" /><phase duration="31" state="rrrGGG" /><phase duration="5" state="rrryyy" /></tlLogic><tlLogic id="256794593" type="static" programID="0" offset="0"><phase duration="31" state="GGGgrr" /><phase duration="5" state="yyygrr" /><phase duration="31" state="rrrGGG" /><phase duration="5" state="rrryyy" /></tlLogic><tlLogic id="256794594" type="static" programID="0" offset="0"><phase duration="31" state="GGGgrr" /><phase duration="5" state="yyygrr" /><phase duration="31" state="rrrGGG" /><phase duration="5" state="rrryyy" /></tlLogic><tlLogic id="26671717" type="static" programID="0" offset="0"><phase duration="31" state="GGGgrr" /><phase duration="5" state="yyygrr" /><phase duration="31" state="rrrGGG" /><phase duration="5" state="rrryyy" /></tlLogic><tlLogic id="26671720" type="static" programID="0" offset="0"><phase duration="31" state="GGGgrr" /><phase duration="5" state="yyygrr" /><phase duration="31" state="rrrGGG" /><phase duration="5" state="rrryyy" /></tlLogic><tlLogic id="2726861247" type="static" programID="0" offset="0"><phase duration="31" state="GGGgrr" /><phase duration="5" state="yyygrr" /><phase duration="31" state="rrrGGG" /><phase duration="5" state="rrryyy" /></tlLogic><tlLogic id="2726861270" type="static" programID="0" offset="0"><phase duration="31" state="GGGgrr" /><phase duration="5" state="yyygrr" /><phase duration="31" state="rrrGGG" /><phase duration="5" state="rrryyy" /></tlLogic><tlLogic id="3807436630" type="static" programID="0" offset="0"><phase duration="31" state="GGGgrr" /><phase duration="5" state="yyygrr" /><phase duration="31" state="rrrGGG" /><phase duration="5" state="rrryyy" /></tlLogic><tlLogic id="4347917401" type="static" programID="0" offset="0"><phase duration="31" state="GGGgrr" /><phase duration="5" state="yyygrr" /><phase duration="31" state="rrrGGG" /><phase duration="5" state="rrryyy" /></tlLogic><tlLogic id="4347922046" type="static" programID="0" offset="0"><phase duration="31" state="GGGgrr" /><phase duration="5" state="yyygrr" /><phase duration="31" state="rrrGGG" /><phase duration="5" state="rrryyy" /></tlLogic><tlLogic id="4766203723" type="static" programID="0" offset="0"><phase duration="31" state="GGGgrr" /><phase duration="5" state="yyygrr" /><phase duration="31" state="rrrGGG" /><phase duration="5" state="rrryyy" /></tlLogic><tlLogic id="5290536464" type="static" programID="0" offset="0"><phase duration="31" state="GGGgrr" /><phase duration="5" state="yyygrr" /><phase duration="31" state="rrrGGG" /><phase duration="5" state="rrryyy" /></tlLogic><tlLogic id="7043031189" type="static" programID="0" offset="0"><phase duration="31" state="GGGgrr" /><phase duration="5" state="yyygrr" /><phase duration="31" state="rrrGGG" /><phase duration="5" state="rrryyy" /></tlLogic></additional>