<routes xmlns:xsi="http://www.w3.org/2001/XMLSchema-instance" xsi:noNamespaceSchemaLocation="http://sumo.dlr.de/xsd/routes_file.xsd">
    <vehicle id="0" depart="0"><route edges="43118737#2 4256531 230506722#0 230506722#1 49796163 43118738#0 43118738#1 43118738#2 43118739 43118733#0 43118733#1 43118733#2 43118734 451852747 43365536 23715305#0 23715305#1 23715305#2 39093506#0 39093506#1 1008674254 483872217#0 483872217#1 483872217#2 230503369#0 230503369#1 230503369#2 -4256546 4256546 -230503369#2 -230503369#1 -230503369#0" /></vehicle><vehicle id="1" depart="0"><route edges="230506728 43118734 451852747 43365536 43118737#0 43118737#1 43118737#2 4256531 23715307 267215482#0 267215482#1 515540039 498958807#0 498958807#1 195406732#0" /></vehicle><vehicle id="2" depart="0"><route edges="480094740#1 480094740#2 43365536 43118737#0 43118737#1 43118737#2 4256531 230506722#0 230506722#1 49796163 43118738#0 43118738#1" /></vehicle><vehicle id="3" depart="0"><route edges="23715305#1 23715305#2 39093506#0 39093506#1 1008674254" /></vehicle><vehicle id="4" depart="0"><route edges="483872216 480094740#0 480094740#1 480094740#2 43365536 43118737#0 43118737#1 43118737#2 4256531 230506722#0 230506722#1 49796163 43118738#0 43118738#1 43118738#2 43118739 43118733#0" /></vehicle><vehicle id="5" depart="60"><route edges="480094740#2 43365536 43118737#0 43118737#1 43118737#2 4256531 230506722#0 230506722#1 49796163 43118738#0 43118738#1 43118738#2 43118739 23715312#0 23715312#1 23715312#2 23715315#0 23715315#1 230506725 43154948" /></vehicle><vehicle id="6" depart="60"><route edges="23715308#1 49796163 43118738#0 43118738#1 43118738#2 43118739 43118733#0 43118733#1 43118733#2 43118734 111971057#0 111971057#1 377367118" /></vehicle><vehicle id="7" depart="60"><route edges="480094741 483872216 480094740#0 480094740#1 480094740#2 43365536 43118737#0 43118737#1 43118737#2 4256531 230506722#0 230506722#1 49796163 43118738#0 43118738#1 43118738#2 43118739 43118733#0 43118733#1" /></vehicle><vehicle id="8" depart="60"><route edges="43365536 23715305#0 23715305#1 23715305#2 39093506#0 39093506#1 1008674254 483872217#0 483872217#1 483872217#2 230503369#0 230503369#1 230503369#2 -4256546 4256546 -230503369#2 -230503369#1" /></vehicle><vehicle id="9" depart="60"><route edges="-483872216 -480094741 480094741 483872216 480094740#0 480094740#1 480094740#2 43365536 43118737#0 43118737#1 43118737#2 4256531 23715307 267215482#0 267215482#1 515540039 498958807#0 498958807#1 195406732#0 195406732#1" /></vehicle><vehicle id="10" depart="120"><route edges="43118737#1 43118737#2 4256531 230506722#0 230506722#1 49796163 43118738#0 43118738#1 43118738#2 43118739 43118733#0 43118733#1 43118733#2 43118734 451852747 43365536 23715305#0 23715305#1 23715305#2 39093506#0 39093506#1 1008674254 -1008674254 -39093506#1 -39093506#0 23715304#0 23715304#1 23715304#2" /></vehicle><vehicle id="11" depart="120"><route edges="23715308#0 23715308#1 49796163 43118738#0 43118738#1 43118738#2 43118739 43118733#0 43118733#1 43118733#2 43118734 111971057#0 111971057#1" /></vehicle><vehicle id="12" depart="120"><route edges="230506725 43154948 230506728 43118734 451852747 43365536 43118737#0 43118737#1 43118737#2 4256531 23715307 267215482#0 267215482#1 515540039 498958807#0 498958807#1" /></vehicle><vehicle id="13" depart="120"><route edges="43118738#0 43118738#1 43118738#2 43118739 43118733#0" /></vehicle><vehicle id="14" depart="120"><route edges="111971057#0 111971057#1 377367118 480094740#0 480094740#1 480094740#2 43365536 43118737#0 43118737#1 43118737#2 4256531 230506722#0 230506722#1 49796163 43118738#0 43118738#1 43118738#2 43118739 23715312#0 23715312#1 23715312#2 23715315#0 23715315#1 230506725 43154948" /></vehicle><vehicle id="15" depart="180"><route edges="1065112866 23715308#0 23715308#1 49796163 43118738#0 43118738#1 43118738#2 43118739 43118733#0 43118733#1 43118733#2 43118734 451852747 43365536 23715305#0 23715305#1" /></vehicle><vehicle id="16" depart="180"><route edges="43118737#2 4256531 230506722#0 230506722#1 49796163 43118738#0 43118738#1 43118738#2 43118739 43118733#0 43118733#1 43118733#2 43118734 451852747 43365536 23715305#0 23715305#1 23715305#2 39093506#0 39093506#1 1008674254 483872217#0 483872217#1 483872217#2 230503369#0 230503369#1 230503369#2 -4256546 4256546 -230503369#2 -230503369#1 -230503369#0" /></vehicle><vehicle id="17" depart="180"><route edges="230506728 43118734 451852747 43365536 43118737#0 43118737#1 43118737#2 4256531 23715307 267215482#0 267215482#1 515540039 498958807#0 498958807#1 195406732#0" /></vehicle><vehicle id="18" depart="180"><route edges="480094740#1 480094740#2 43365536 43118737#0 43118737#1 43118737#2 4256531 230506722#0 230506722#1 49796163 43118738#0 43118738#1" /></vehicle><vehicle id="19" depart="180"><route edges="23715305#1 23715305#2 39093506#0 39093506#1 1008674254" /></vehicle><vehicle id="20" depart="240"><route edges="483872216 480094740#0 480094740#1 480094740#2 43365536 43118737#0 43118737#1 43118737#2 4256531 230506722#0 230506722#1 49796163 43118738#0 43118738#1 43118738#2 43118739 43118733#0" /></vehicle><vehicle id="21" depart="240"><route edges="480094740#2 43365536 43118737#0 43118737#1 43118737#2 4256531 230506722#0 230506722#1 49796163 43118738#0 43118738#1 43118738#2 43118739 23715312#0 23715312#1 23715312#2 23715315#0 23715315#1 230506725 43154948" /></vehicle><vehicle id="22" depart="240"><route edges="23715308#1 49796163 43118738#0 43118738#1 43118738#2 43118739 43118733#0 43118733#1 43118733#2 43118734 111971057#0 111971057#1 377367118" /></vehicle><vehicle id="23" depart="240"><route edges="480094741 483872216 480094740#0 480094740#1 480094740#2 43365536 43118737#0 43118737#1 43118737#2 4256531 230506722#0 230506722#1 49796163 43118738#0 43118738#1 43118738#2 43118739 43118733#0 43118733#1" /></vehicle><vehicle id="24" depart="240"><route edges="43365536 23715305#0 23715305#1 23715305#2 39093506#0 39093506#1 1008674254 483872217#0 483872217#1 483872217#2 230503369#0 230503369#1 230503369#2 -4256546 4256546 -230503369#2 -230503369#1" /></vehicle><vehicle id="25" depart="300"><route edges="-483872216 -480094741 480094741 483872216 480094740#0 480094740#1 480094740#2 43365536 43118737#0 43118737#1 43118737#2 4256531 23715307 267215482#0 267215482#1 515540039 498958807#0 498958807#1 195406732#0 195406732#1" /></vehicle><vehicle id="26" depart="300"><route edges="43118737#1 43118737#2 4256531 230506722#0 230506722#1 49796163 43118738#0 43118738#1 43118738#2 43118739 43118733#0 43118733#1 43118733#2 43118734 451852747 43365536 23715305#0 23715305#1 23715305#2 39093506#0 39093506#1 1008674254 -1008674254 -39093506#1 -39093506#0 23715304#0 23715304#1 23715304#2" /></vehicle><vehicle id="27" depart="300"><route edges="23715308#0 23715308#1 49796163 43118738#0 43118738#1 43118738#2 43118739 43118733#0 43118733#1 43118733#2 43118734 111971057#0 111971057#1" /></vehicle><vehicle id="28" depart="300"><route edges="230506725 43154948 230506728 43118734 451852747 43365536 43118737#0 43118737#1 43118737#2 4256531 23715307 267215482#0 267215482#1 515540039 498958807#0 498958807#1" /></vehicle><vehicle id="29" depart="300"><route edges="43118738#0 43118738#1 43118738#2 43118739 43118733#0" /></vehicle><vehicle id="30" depart="360"><route edges="111971057#0 111971057#1 377367118 480094740#0 480094740#1 480094740#2 43365536 43118737#0 43118737#1 43118737#2 4256531 230506722#0 230506722#1 49796163 43118738#0 43118738#1 43118738#2 43118739 23715312#0 23715312#1 23715312#2 23715315#0 23715315#1 230506725 43154948" /></vehicle><vehicle id="31" depart="360"><route edges="1065112866 23715308#0 23715308#1 49796163 43118738#0 43118738#1 43118738#2 43118739 43118733#0 43118733#1 43118733#2 43118734 451852747 43365536 23715305#0 23715305#1" /></vehicle><vehicle id="32" depart="360"><route edges="43118737#2 4256531 230506722#0 230506722#1 49796163 43118738#0 43118738#1 43118738#2 43118739 43118733#0 43118733#1 43118733#2 43118734 451852747 43365536 23715305#0 23715305#1 23715305#2 39093506#0 39093506#1 1008674254 483872217#0 483872217#1 483872217#2 230503369#0 230503369#1 230503369#2 -4256546 4256546 -230503369#2 -230503369#1 -230503369#0" /></vehicle><vehicle id="33" depart="360"><route edges="230506728 43118734 451852747 43365536 43118737#0 43118737#1 43118737#2 4256531 23715307 267215482#0 267215482#1 515540039 498958807#0 498958807#1 195406732#0" /></vehicle><vehicle id="34" depart="360"><route edges="480094740#1 480094740#2 43365536 43118737#0 43118737#1 43118737#2 4256531 230506722#0 230506722#1 49796163 43118738#0 43118738#1" /></vehicle><vehicle id="35" depart="420"><route edges="23715305#1 23715305#2 39093506#0 39093506#1 1008674254" /></vehicle><vehicle id="36" depart="420"><route edges="483872216 480094740#0 480094740#1 480094740#2 43365536 43118737#0 43118737#1 43118737#2 4256531 230506722#0 230506722#1 49796163 43118738#0 43118738#1 43118738#2 43118739 43118733#0" /></vehicle><vehicle id="37" depart="420"><route edges="480094740#2 43365536 43118737#0 43118737#1 43118737#2 4256531 230506722#0 230506722#1 49796163 43118738#0 43118738#1 43118738#2 43118739 23715312#0 23715312#1 23715312#2 23715315#0 23715315#1 230506725 43154948" /></vehicle><vehicle id="38" depart="420"><route edges="23715308#1 49796163 43118738#0 43118738#1 43118738#2 43118739 43118733#0 43118733#1 43118733#2 43118734 111971057#0 111971057#1 377367118" /></vehicle><vehicle id="39" depart="420"><route edges="480094741 483872216 480094740#0 480094740#1 480094740#2 43365536 43118737#0 43118737#1 43118737#2 4256531 230506722#0 230506722#1 49796163 43118738#0 43118738#1 43118738#2 43118739 43118733#0 43118733#1" /></vehicle><vehicle id="40" depart="480"><route edges="43365536 23715305#0 23715305#1 23715305#2 39093506#0 39093506#1 1008674254 483872217#0 483872217#1 483872217#2 230503369#0 230503369#1 230503369#2 -4256546 4256546 -230503369#2 -230503369#1" /></vehicle><vehicle id="41" depart="480"><route edges="-483872216 -480094741 480094741 483872216 480094740#0 480094740#1 480094740#2 43365536 43118737#0 43118737#1 43118737#2 4256531 23715307 267215482#0 267215482#1 515540039 498958807#0 498958807#1 195406732#0 195406732#1" /></vehicle><vehicle id="42" depart="480"><route edges="43118737#1 43118737#2 4256531 230506722#0 230506722#1 49796163 43118738#0 43118738#1 43118738#2 43118739 43118733#0 43118733#1 43118733#2 43118734 451852747 43365536 23715305#0 23715305#1 23715305#2 39093506#0 39093506#1 1008674254 -1008674254 -39093506#1 -39093506#0 23715304#0 23715304#1 23715304#2" /></vehicle><vehicle id="43" depart="480"><route edges="23715308#0 23715308#1 49796163 43118738#0 43118738#1 43118738#2 43118739 43118733#0 43118733#1 43118733#2 43118734 111971057#0 111971057#1" /></vehicle><vehicle id="44" depart="480"><route edges="230506725 43154948 230506728 43118734 451852747 43365536 43118737#0 43118737#1 43118737#2 4256531 23715307 267215482#0 267215482#1 515540039 498958807#0 498958807#1" /></vehicle><vehicle id="45" depart="540"><route edges="43118738#0 43118738#1 43118738#2 43118739 43118733#0" /></vehicle><vehicle id="46" depart="540"><route edges="111971057#0 111971057#1 377367118 480094740#0 480094740#1 480094740#2 43365536 43118737#0 43118737#1 43118737#2 4256531 230506722#0 230506722#1 49796163 43118738#0 43118738#1 43118738#2 43118739 23715312#0 23715312#1 23715312#2 23715315#0 23715315#1 230506725 43154948" /></vehicle><vehicle id="47" depart="540"><route edges="1065112866 23715308#0 23715308#1 49796163 43118738#0 43118738#1 43118738#2 43118739 43118733#0 43118733#1 43118733#2 43118734 451852747 43365536 23715305#0 23715305#1" /></vehicle><vehicle id="48" depart="540"><route edges="43118737#2 4256531 230506722#0 230506722#1 49796163 43118738#0 43118738#1 43118738#2 43118739 43118733#0 43118733#1 43118733#2 43118734 451852747 43365536 23715305#0 23715305#1 23715305#2 39093506#0 39093506#1 1008674254 483872217#0 483872217#1 483872217#2 230503369#0 230503369#1 230503369#2 -4256546 4256546 -230503369#2 -230503369#1 -230503369#0" /></vehicle><vehicle id="49" depart="540"><route edges="230506728 43118734 451852747 43365536 43118737#0 43118737#1 43118737#2 4256531 23715307 267215482#0 267215482#1 515540039 498958807#0 498958807#1 195406732#0" /></vehicle></routes>